LAMMPS (16 Mar 2018)
atom_style	atomic
units		metal
dimension	3
boundary	p p p
processors	* * *

# ---------------------------------------------------------
box		tilt large
read_data       data.relax
  triclinic box = (-1.92015 -1.6629 -1.17585) to (113.289 98.1109 92.8918) with tilt (57.6045 57.6045 33.2579)
  reading atoms ...
  54000 atoms
pair_style	tersoff
pair_coeff	* * SiCGe.tersoff Si(D) Si(D)

#--------------- Simulation control parameters ----------------------------------------------------------
variable	Tlo equal 10
variable	T equal 50    	          				# Kelvin
variable	Thi equal 750
variable	V equal vol             				# A^3
variable	dt equal 0.0005          				# 0.5fs; in picoseconds = 1e-12 s
variable	NRUNNVT equal 1000000
variable        NRUNNPT equal 100000
variable	NRUNanneal equal 500000
variable	NRUNNVE equal 100000
variable	thermocalc equal 10000
variable	snapprint equal 1000
variable        Lx equal xhi-xlo
variable        Ly equal yhi-ylo
Lx = 115.208907858724 A
Ly = 99.7738409479158 A
timestep  	0.0005

# -------------- Print structure -----------------------
dump		snapxyz all custom 100 sisnap.lammpstrj id type x y z

# -------------- Relax Structure at 0K --------------------------
thermo_style    custom step temp pe etotal press pxx pyy pzz lx ly lz fmax fnorm
thermo		1000
#fix		filmrelax all box/relax x 0 y 0 z 0 couple none		#Try different methods to relax different systems
fix             filmrelax all box/relax x 0 y 0 z 0 xy 0 xz 0 yz 0 couple none         #Try different methods to relax different systems
minimize	0.0 1e-11 100000 10000000
  update every 1 steps, delay 0 steps, check yes
Step Temp PotEng TotEng Press Pxx Pyy Pzz Lx Ly Lz Fmax Fnorm
0            0   -249998.03   -249998.03    543.43583    543.43583    543.43583    543.43583    115.20891    99.773841    94.067679 2.0525803e-12 9.426706e-11
Averages over the last 51 of 101 rows, steps 50000 to 100000:
Temp PotEng TotEng Press Pxx Pyy Pzz Lx Ly Lz Fmax Fnorm
0 -249998 -249998 -1.48011e-10 -2.57784e-08 2.55995e-08 -2.65149e-10 115.23 99.7923 94.0851 2.4276e-09 4.40368e-07
Loop time of 377.361 on 108 procs for 100000 steps with 54000 atoms

Minimization stats:
  Stopping criterion = max iterations
  Energy initial, next-to-last, final =
  Force two-norm initial, final = 635.246 1.21677e-06
  Force max component initial, final = 366.759 8.86969e-07
  Final line search alpha, max atom move = 1 8.86969e-07
  Iterations, force evaluations = 100000 199999

min_style	sd
min_modify	dmax 0.2
write_restart	restart.min.*

# -------------- NVT Thermalization -----------------------------
thermo_style    custom step temp pe etotal press pxx pyy pzz lx ly lz
dump_modify     snapxyz every 1000
restart		500000 restart
thermo          10000
velocity	all create 10 14225 mom yes rot yes dist gaussian
fix		NVT all nvt temp 10 750 0.05 tchain 10
run		1000000
Step Temp PotEng TotEng Press Pxx Pyy Pzz Lx Ly Lz
100000           10   -249998.13   -249928.33     68.91046    68.343519    68.751373    69.636488    115.23023    99.792308     94.08509
Averages over the last 51 of 101 rows, steps 600000 to 1100000:
Temp PotEng TotEng Press Pxx Pyy Pzz Lx Ly Lz
565.038 -245982 -242038 10295.4 10281.7 10343.2 10261.2 115.23 99.7923 94.0851
Loop time of 1814.59 on 108 procs for 1000000 steps with 54000 atoms

unfix		NVT
write_restart	restart.NVT.*

# ------------ Annealing -----------------------------------------
fix             equil all langevin 750 50 0.05 24164 tally yes zero yes
fix             NVE all nve
run             500000
Step Temp PotEng TotEng Press Pxx Pyy Pzz Lx Ly Lz
1100000    751.56655   -244615.82   -239369.94    13713.373    14052.861    13693.414    13393.843    115.23023    99.792308     94.08509
Averages over the last 26 of 51 rows, steps 1350000 to 1600000:
Temp PotEng TotEng Press Pxx Pyy Pzz Lx Ly Lz
225.076 -248412 -246841 4124.73 4135.46 4080.65 4158.09 115.23 99.7923 94.0851
Loop time of 925.982 on 108 procs for 500000 steps with 54000 atoms

unfix           equil
unfix           NVE
write_restart	restart.anneal.300.*

# -------------- NVE Equilibration ----------------------------------
fix             NVE all nve
dump            snapNVExyz all custom 1000 snap.NVE.lammpstrj id type x y z
run             100000
Step Temp PotEng TotEng Press Pxx Pyy Pzz Lx Ly Lz
1600000    50.181283   -249646.86    -249296.6    929.28887    986.83567    825.17166    975.85928    115.23023    99.792308     94.08509
Averages over the last 6 of 11 rows, steps 1650000 to 1700000:
Temp PotEng TotEng Press Pxx Pyy Pzz Lx Ly Lz
50.2269 -249647 -249297 926.775 911.493 942.409 926.423 115.23 99.7923 94.0851
Loop time of 179.696 on 108 procs for 100000 steps with 54000 atoms

unfix           NVE
write_restart   restart.anneal.NVE.*

# ------------ Pressure Relaxation -----------------------------------------
#fix             NPT all npt temp $T $T 0.05 x 0 0 0.5 y 0 0 0.5 z 0 0 0.5 couple none tchain 10
fix             NPT all npt temp $T $T 0.05 x 0 0 0.5 y 0 0 0.5 z 0 0 0.5 xy 0 0 0.5 xz 0 0 0.5 yz 0 0 0.5 couple none tchain 10
fix             NPT all npt temp 50 $T 0.05 x 0 0 0.5 y 0 0 0.5 z 0 0 0.5 xy 0 0 0.5 xz 0 0 0.5 yz 0 0 0.5 couple none tchain 10
fix             NPT all npt temp 50 50 0.05 x 0 0 0.5 y 0 0 0.5 z 0 0 0.5 xy 0 0 0.5 xz 0 0 0.5 yz 0 0 0.5 couple none tchain 10

run             100000
Step Temp PotEng TotEng Press Pxx Pyy Pzz Lx Ly Lz
1700000    50.411187   -249648.47    -249296.6    926.12457    884.61454    939.11807    954.64109    115.23023    99.792308     94.08509
Averages over the last 6 of 11 rows, steps 1750000 to 1800000:
Temp PotEng TotEng Press Pxx Pyy Pzz Lx Ly Lz
50.127 -249648 -249299 -4.06014 4.16069 -20.8672 4.52612 115.267 99.8254 94.1136
Loop time of 187.889 on 108 procs for 100000 steps with 54000 atoms

unfix           NPT
write_restart   restart.NPT.300.*

# -------------- NVE Equilibration ----------------------------------
fix             NVE all nve
dump            snapNVEPxyz all custom 1000 snap.NVE.pressure.lammpstrj id type x y z
run             100000
Step Temp PotEng TotEng Press Pxx Pyy Pzz Lx Ly Lz
1800000    50.170474   -249648.84   -249298.65    29.406343   -60.183724    71.328388    77.074364     115.2723    99.821158    94.109764
Averages over the last 6 of 11 rows, steps 1850000 to 1900000:
Temp PotEng TotEng Press Pxx Pyy Pzz Lx Ly Lz
49.9246 -249647 -249299 30.1471 -37.4825 50.5175 77.4064 115.272 99.8212 94.1098
Loop time of 181.825 on 108 procs for 100000 steps with 54000 atoms

unfix           NVE
write_restart   restart.NVE.pressure.*

write_restart   restart.final.*
write_data	data.relaxed nocoeff
