LAMMPS (16 Mar 2018)
atom_style	atomic
units		metal
dimension	3
boundary	p p p
processors	* * *

# ---------------------------------------------------------
box		tilt large
read_data       data.relax
  triclinic box = (-1.92015 -1.6629 -1.17585) to (90.247 78.1562 74.0783) with tilt (46.0836 46.0836 26.6064)
  reading atoms ...
  27648 atoms
pair_style	tersoff
pair_coeff	* * SiCGe.tersoff Si(D) Si(D)

#--------------- Simulation control parameters ----------------------------------------------------------
variable	Tlo equal 300
variable	T equal 300    	          				# Kelvin
variable	Thi equal 750
variable	V equal vol             				# A^3
variable	dt equal 0.0005          				# 0.5fs; in picoseconds = 1e-12 s
variable	NRUNNVT equal 100000
variable        NRUNNPT equal 100000
variable	NRUNanneal equal 100000
variable	NRUNNVE equal 100000
variable	thermocalc equal 10000
variable	snapprint equal 1000
variable        Lx equal xhi-xlo
variable        Ly equal yhi-ylo
Lx = 92.1671262869793 A
Ly = 79.8190727583326 A
timestep  	0.0005

# -------------- Print structure -----------------------
dump		snapxyz all custom 100 sisnap.lammpstrj id type x y z

# -------------- Relax Structure at 0K --------------------------
thermo_style    custom step temp pe etotal press pxx pyy pzz lx ly lz fmax fnorm
thermo		1000
#fix		filmrelax all box/relax x 0 y 0 z 0 couple none		#Try different methods to relax different systems
fix             filmrelax all box/relax x 0 y 0 z 0 xy 0 xz 0 yz 0 couple none         #Try different methods to relax different systems
minimize	0.0 1e-11 100000 10000000
  update every 1 steps, delay 0 steps, check yes
Step Temp PotEng TotEng Press Pxx Pyy Pzz Lx Ly Lz Fmax Fnorm
0            0   -127998.99   -127998.99    543.43583    543.43583    543.43583    543.43583    92.167126    79.819073    75.254143 1.3535839e-12 5.3714003e-11
Averages over the last 51 of 101 rows, steps 50000 to 100000:
Temp PotEng TotEng Press Pxx Pyy Pzz Lx Ly Lz Fmax Fnorm
0 -127999 -127999 4.34179e-11 -2.40989e-08 2.41972e-08 3.18639e-11 92.1842 79.8338 75.2681 1.1105e-09 1.12642e-07
Loop time of 168.856 on 144 procs for 100000 steps with 27648 atoms

Minimization stats:
  Stopping criterion = max iterations
  Energy initial, next-to-last, final =
  Force two-norm initial, final = 325.246 2.38349e-07
  Force max component initial, final = 187.781 1.84495e-07
  Final line search alpha, max atom move = 1 1.84495e-07
  Iterations, force evaluations = 100000 199999

min_style	sd
min_modify	dmax 0.2
write_restart	restart.min.*

# -------------- NVT Thermalization -----------------------------
thermo_style    custom step temp pe etotal press pxx pyy pzz lx ly lz
dump_modify     snapxyz every 1000
restart		500000 restart
thermo          10000
velocity	all create 750 7253 mom yes rot yes dist gaussian
fix		NVT all nvt temp 750 750 0.05 tchain 10
run		100000
Step Temp PotEng TotEng Press Pxx Pyy Pzz Lx Ly Lz
100000          750   -127999.04    -125318.8    5168.1933    5165.8904    5154.4717    5184.2178    92.184185    79.833846    75.268072
Averages over the last 6 of 11 rows, steps 150000 to 200000:
Temp PotEng TotEng Press Pxx Pyy Pzz Lx Ly Lz
750.632 -125254 -122571 13546.5 13562 13468.5 13608.8 92.1842 79.8338 75.2681
Loop time of 75.8951 on 144 procs for 100000 steps with 27648 atoms

unfix		NVT
write_restart	restart.NVT.*

# ------------ Annealing -----------------------------------------
fix             equil all langevin 750 300 0.05 9934 tally yes zero yes
fix             NVE all nve
run             100000
Step Temp PotEng TotEng Press Pxx Pyy Pzz Lx Ly Lz
200000    751.68669   -125268.46   -122582.19    13530.505    13472.464    13316.011    13803.039    92.184185    79.833846    75.268072
Averages over the last 6 of 11 rows, steps 250000 to 300000:
Temp PotEng TotEng Press Pxx Pyy Pzz Lx Ly Lz
413.892 -126503 -125024 7540.26 7580.62 7428.61 7611.54 92.1842 79.8338 75.2681
Loop time of 79.2994 on 144 procs for 100000 steps with 27648 atoms

unfix           equil
unfix           NVE
write_restart	restart.anneal.300.*

# -------------- NVE Equilibration ----------------------------------
fix             NVE all nve
dump            snapNVExyz all custom 1000 snap.NVE.lammpstrj id type x y z
run             100000
Step Temp PotEng TotEng Press Pxx Pyy Pzz Lx Ly Lz
300000    301.63694    -126915.6   -125837.66     5488.796    5615.8611    5154.1133    5696.4136    92.184185    79.833846    75.268072
Averages over the last 6 of 11 rows, steps 350000 to 400000:
Temp PotEng TotEng Press Pxx Pyy Pzz Lx Ly Lz
301.235 -126914 -125838 5496.03 5290.14 5571.32 5626.63 92.1842 79.8338 75.2681
Loop time of 76.2454 on 144 procs for 100000 steps with 27648 atoms

unfix           NVE
write_restart   restart.anneal.NVE.*

# ------------ Pressure Relaxation -----------------------------------------
#fix             NPT all npt temp $T $T 0.05 x 0 0 0.5 y 0 0 0.5 z 0 0 0.5 couple none tchain 10
fix             NPT all npt temp $T $T 0.05 x 0 0 0.5 y 0 0 0.5 z 0 0 0.5 xy 0 0 0.5 xz 0 0 0.5 yz 0 0 0.5 couple none tchain 10
fix             NPT all npt temp 300 $T 0.05 x 0 0 0.5 y 0 0 0.5 z 0 0 0.5 xy 0 0 0.5 xz 0 0 0.5 yz 0 0 0.5 couple none tchain 10
fix             NPT all npt temp 300 300 0.05 x 0 0 0.5 y 0 0 0.5 z 0 0 0.5 xy 0 0 0.5 xz 0 0 0.5 yz 0 0 0.5 couple none tchain 10

run             100000
Step Temp PotEng TotEng Press Pxx Pyy Pzz Lx Ly Lz
400000    300.45868   -126911.39   -125837.66    5500.2132    5399.0479      5660.98    5440.6117    92.184185    79.833846    75.268072
Averages over the last 6 of 11 rows, steps 450000 to 500000:
Temp PotEng TotEng Press Pxx Pyy Pzz Lx Ly Lz
300.426 -126911 -125837 90.9027 165.661 80.9964 26.0506 92.3565 79.9841 75.4107
Loop time of 84.9567 on 144 procs for 100000 steps with 27648 atoms

unfix           NPT
write_restart   restart.NPT.300.*

# -------------- NVE Equilibration ----------------------------------
fix             NVE all nve
dump            snapNVEPxyz all custom 1000 snap.NVE.pressure.lammpstrj id type x y z
run             100000
Step Temp PotEng TotEng Press Pxx Pyy Pzz Lx Ly Lz
500000     302.3727   -126916.36   -125835.79     238.8852    151.22755    44.629436     520.7986    92.358443    79.979638    75.403071
Averages over the last 6 of 11 rows, steps 550000 to 600000:
Temp PotEng TotEng Press Pxx Pyy Pzz Lx Ly Lz
300.638 -126910 -125836 198.096 146.382 229.118 218.787 92.3584 79.9796 75.4031
Loop time of 75.8638 on 144 procs for 100000 steps with 27648 atoms

unfix           NVE
write_restart   restart.NVE.pressure.*

write_restart   restart.final.*
write_data	data.vels nocoeff
