LAMMPS (16 Mar 2018)
atom_style	atomic
units		metal
dimension	3
boundary	p p p
processors	* * *

# ---------------------------------------------------------
read_data       data.relax
  orthogonal box = (-0.693063 -0.693063 -0.693063) to (110.197 54.7519 54.7519)
  reading atoms ...
  16000 atoms
pair_style	tersoff
pair_coeff	* * SiCGe.tersoff Si(D) Ge

#--------------- Simulation control parameters ----------------------------------------------------------
variable	Tlo equal 750
variable	T equal 300    	          				# Kelvin
variable	Thi equal 750
variable	V equal vol             				# A^3
variable	dt equal 0.0005          				# 0.5fs; in picoseconds = 1e-12 s
variable	NRUNNVT equal 50000 #1000000
variable        NRUNNPT equal 50000
variable	NRUNanneal equal 100000 #500000
variable	NRUNNVE equal 50000
variable	thermocalc equal 1000
variable	snapprint equal 1000
variable        Lx equal xhi-xlo
variable        Ly equal yhi-ylo
Lx = 110.89 A
Ly = 55.445 A
timestep  	0.0005

# -------------- Print structure -----------------------
dump		snapxyz all custom 100 sisnap.lammpstrj id type x y z

# -------------- Relax Structure at 0K --------------------------
thermo_style    custom step temp pe etotal press pxx pyy pzz lx ly lz fmax fnorm
thermo		1000
fix		filmrelax all box/relax x 0 y 0 z 0 couple none		#Try different methods to relax different systems
minimize	0.0 1e-11 100000 10000000
  update every 1 steps, delay 0 steps, check yes
Step Temp PotEng TotEng Press Pxx Pyy Pzz Lx Ly Lz Fmax Fnorm
0            0   -67551.714   -67551.714    -598.0454    -598.0454    -598.0454    -598.0454       110.89       55.445       55.445   0.51399538    45.227633
Averages over the last 51 of 101 rows, steps 50000 to 100000:
Temp PotEng TotEng Press Pxx Pyy Pzz Lx Ly Lz Fmax Fnorm
0 -67718.7 -67718.7 -1.16013e-10 1.86116e-11 -2.38951e-10 -1.27701e-10 110.358 55.5402 55.5402 2.49518e-12 8.72029e-11
Loop time of 705.395 on 16 procs for 100000 steps with 16000 atoms

Minimization stats:
  Stopping criterion = max iterations
  Energy initial, next-to-last, final =
  Force two-norm initial, final = 224.988 6.71383e-10
  Force max component initial, final = 127.245 6.05671e-10
  Final line search alpha, max atom move = 1 6.05671e-10
  Iterations, force evaluations = 100000 194776

min_style	sd
min_modify	dmax 0.2
write_restart	restart.min.*

# -------------- NVT Thermalization -----------------------------
thermo_style    custom step temp pe etotal press pxx pyy pzz lx ly lz
dump_modify     snapxyz every 1000
restart		500000 restart
thermo          1000
velocity	all create 750 1164 mom yes rot yes dist gaussian
fix		NVT all nvt temp 750 750 0.05 tchain 10
run		50000
Step Temp PotEng TotEng Press Pxx Pyy Pzz Lx Ly Lz
100000          750   -67718.736   -66167.711    4866.5167    4903.8016    4758.8367    4936.9117    110.35841    55.540157    55.540157
Averages over the last 26 of 51 rows, steps 125000 to 150000:
Temp PotEng TotEng Press Pxx Pyy Pzz Lx Ly Lz
750.832 -66119.3 -64566.6 14006.6 14386.9 13818.5 13814.3 110.358 55.5402 55.5402
Loop time of 171.87 on 16 procs for 50000 steps with 16000 atoms

unfix		NVT
write_restart	restart.NVT.*

# ------------ Annealing -----------------------------------------
fix             equil all langevin 750 300 0.05 17042 tally yes zero yes
fix             NVE all nve
run             100000
Step Temp PotEng TotEng Press Pxx Pyy Pzz Lx Ly Lz
150000    757.51151   -66114.805   -64548.246    14030.909    14384.466    13909.884    13798.379    110.35841    55.540157    55.540157
Averages over the last 51 of 101 rows, steps 200000 to 250000:
Temp PotEng TotEng Press Pxx Pyy Pzz Lx Ly Lz
412.406 -66851 -65998.1 7751.18 7983.97 7624.93 7644.65 110.358 55.5402 55.5402
Loop time of 351.408 on 16 procs for 100000 steps with 16000 atoms

unfix           equil
unfix           NVE
write_restart	restart.anneal.300.*

# -------------- NVE Equilibration ----------------------------------
fix             NVE all nve
dump            snapNVExyz all custom 1000 snap.NVE.lammpstrj id type x y z
run             50000
Step Temp PotEng TotEng Press Pxx Pyy Pzz Lx Ly Lz
250000    301.57108   -67094.164   -66470.505    5601.9191    5829.0585    5521.3716    5455.3273    110.35841    55.540157    55.540157
Averages over the last 26 of 51 rows, steps 275000 to 300000:
Temp PotEng TotEng Press Pxx Pyy Pzz Lx Ly Lz
299.584 -67090.1 -66470.5 5637.82 5816.76 5546.86 5549.82 110.358 55.5402 55.5402
Loop time of 171.589 on 16 procs for 50000 steps with 16000 atoms

unfix           NVE
write_restart   restart.anneal.NVE.*

# ------------ Pressure Relaxation -----------------------------------------
fix             NPT all npt temp $T $T 0.05 x 0 0 0.5 y 0 0 0.5 z 0 0 0.5 couple none tchain 10
fix             NPT all npt temp 300 $T 0.05 x 0 0 0.5 y 0 0 0.5 z 0 0 0.5 couple none tchain 10
fix             NPT all npt temp 300 300 0.05 x 0 0 0.5 y 0 0 0.5 z 0 0 0.5 couple none tchain 10

run             50000
Step Temp PotEng TotEng Press Pxx Pyy Pzz Lx Ly Lz
300000    297.62666   -67086.006   -66470.504    5668.2547     5831.622    5539.3271    5633.8149    110.35841    55.540157    55.540157
Averages over the last 26 of 51 rows, steps 325000 to 350000:
Temp PotEng TotEng Press Pxx Pyy Pzz Lx Ly Lz
299.82 -67086.7 -66466.7 -30.9509 -33.555 -52.8396 -6.45813 110.642 55.6569 55.6546
Loop time of 176.806 on 16 procs for 50000 steps with 16000 atoms

unfix           NPT
write_restart   restart.NPT.300.*

# -------------- NVE Equilibration ----------------------------------
fix             NVE all nve
dump            snapNVEPxyz all custom 1000 snap.NVE.pressure.lammpstrj id type x y z
run             50000
Step Temp PotEng TotEng Press Pxx Pyy Pzz Lx Ly Lz
350000    300.28174   -67083.307   -66462.315    58.355701    69.993361    83.702349    21.371391    110.63701    55.651818    55.660184
Averages over the last 26 of 51 rows, steps 375000 to 400000:
Temp PotEng TotEng Press Pxx Pyy Pzz Lx Ly Lz
300.861 -67084.5 -66462.3 24.7688 35.2926 72.9841 -33.9703 110.637 55.6518 55.6602
Loop time of 171.712 on 16 procs for 50000 steps with 16000 atoms

unfix           NVE
write_restart   restart.NVE.pressure.*

write_restart   restart.final.*
write_data	data.vels nocoeff
